375

O        3.655392381    -1.304752418     2.743579869
H        3.655392381    -0.398144538     2.459745142
H        2.894846753    -1.465615239     3.289651701
O       -3.306057925    -1.422589693    13.743237655
H       -3.306057925    -2.358043244    13.908847603
H       -2.461343071    -1.162684392    13.394802587
O        0.059051634     1.359332543    20.430026349
H        0.059051634     1.439188033    21.376664137
H       -0.796191713     1.067607167    20.136843697
O        3.928263267     1.404450920    35.450193856
H        3.928263267     0.665720773    34.852885083
H        4.629325507     2.001180146    35.215828944
O       -4.672067201    -2.687336855    40.677273627
H       -4.672067201    -1.791540653    40.360968137
H       -5.166848450    -3.234519373    40.078705540
O       -0.931666320     7.588822980    -3.698365366
H       -0.931666320     7.596752235    -4.648332274
H       -1.108335532     6.708138189    -3.389038300
O       -0.064597796    14.658310443    12.283588079
H       -0.064597796    13.747944781    12.555128795
H        0.517167424    14.767111817    11.540478103
O        0.282560587    11.217716277    26.957246645
H        0.282560587    10.301579108    27.208628205
H        0.163494529    11.288194225    26.017375867
O        0.205208993    13.792471953    32.350307287
H        0.205208993    14.391882256    31.613281311
H        0.391931391    12.913060879    32.043270065
O       -1.191999252    14.082162196    48.421250041
H       -1.191999252    13.677815583    47.561596729
H       -2.042251079    14.471757822    48.587947448
O        0.490036682    17.778863235    -3.350058814
H        0.490036682    18.590873818    -2.856967734
H       -0.200212858    17.211938383    -3.026558073
O       -1.235830933    17.585523420     5.966158820
H       -1.235830933    17.336129225     6.882838991
H       -2.061550076    18.003486979     5.751693655
O       -2.648627057    26.711759053    26.386342667
H       -2.648627057    27.477713948    25.824370160
H       -2.554347261    25.929550950    25.855529377
O        0.249907197    20.994128551    35.371625691
H        0.249907197    21.068837314    36.318683557
H        0.692995827    20.193243427    35.117152842
O        0.586676676    17.190209922    43.515762379
H        0.586676676    17.585950907    42.652113682
H       -0.225160327    17.402249471    43.961251837
O        2.027839334    30.529229796     2.433137298
H        2.027839334    31.260866654     3.039113789
H        2.572891624    30.738705642     1.683778360
O        2.020854248    29.323894826    10.375000614
H        2.020854248    29.974725433     9.682960499
H        1.594133212    29.680604731    11.145174716
O       -1.812481962    30.622478704    26.031335223
H       -1.812481962    29.855445289    26.591834768
H       -1.464922186    30.391121139    25.178002447
O        4.287375531    33.792174118    34.791960015
H        4.287375531    34.529857021    34.193358365
H        5.119296524    33.337172857    34.733802807
O        4.492542052    31.854934769    46.917406175
H        4.492542052    32.724714557    47.299483549
H        3.734009564    31.373450673    47.226117166
O        0.003657429    41.265939035     4.802781716
H        0.003657429    41.724048175     3.970534147
H       -0.532595157    40.484761559     4.734255361
O        3.752522691    45.052678682    10.365065433
H        3.752522691    45.700976061    11.059479220
H        3.926819702    45.478763146     9.534057895
O        2.973941544    42.324379158    21.228828870
H        2.973941544    41.384940998    21.087563363
H        2.632179853    42.514416055    22.094615144
O       -1.989050984    44.669439636    32.411741806
H       -1.989050984    43.837597338    31.952897179
H       -2.734857871    45.186275685    32.130399432
O       -3.671145442    40.048203466    43.939192748
H       -3.671145442    40.996198031    43.877497495
H       -4.562573464    39.737858677    44.046631755
O       15.147406985     1.632849605    -0.949327164
H       15.147406985     2.582847232    -0.947203739
H       15.755305626     1.317653668    -1.607819161
O        9.113173747    -2.458020709    11.607931621
H        9.113173747    -3.407462202    11.575360896
H        8.598463365    -2.166670931    12.351362502
O       13.312008184    -3.717106032    25.299151119
H       13.312008184    -4.532591070    24.811827660
H       13.340439109    -2.986055756    24.693132866
O        6.878536834     4.207808852    28.352184389
H        6.878536834     4.336063147    29.293487122
H        6.478820349     4.959248951    27.930206362
O        8.692850036     2.836175476    46.158618982
H        8.692850036     3.626847680    46.685247376
H        7.816171100     2.470918401    46.135765992
O       12.098428542    13.730805871    -3.897311000
H       12.098428542    13.017855064    -4.525165399
H       12.986893282    14.043384321    -3.773109287
O        6.908617086     7.012339565     7.906509623
H        6.908617086     6.784419269     8.828763568
H        6.529730078     6.300433099     7.404379396
O       12.031742219    13.732339234    17.635167894
H       12.031742219    12.936750855    17.115996313
H       11.136074413    13.998334973    17.807000357
O        8.324644364    14.996157433    29.467310059
H        8.324644364    15.010801044    28.517422926
H        7.480569592    14.691710856    29.779321289
O       14.457256744     6.478026433    39.151051458
H       14.457256744     6.920687801    38.310485629
H       15.201682459     6.771149749    39.663311180
O        7.930048690    18.290436770    -1.043759302
H        7.930048690    18.785194593    -1.854755416
H        7.551070592    18.818313616    -0.350778362
O        9.476341497    22.850343373    11.673378501
H        9.476341497    22.571574995    12.581557002
H        9.820178068    22.152632307    11.127964321
O        7.294577890    22.512021661    24.516353756
H        7.294577890    21.616966848    24.834751120
H        6.400046126    22.795251131    24.367710096
O       12.060806160    25.577542378    35.380485151
H       12.060806160    26.265323226    36.035815224
H       11.187521057    25.485547741    35.017978515
O       13.623286813    24.999115701    48.214585099
H       13.623286813    25.678913087    47.550977147
H       13.187512382    25.319127472    48.995734290
O       15.645272853    35.158803508     4.216608926
H       15.645272853    35.258003191     3.271802373
H       16.092478174    35.897529518     4.612578910
O       11.236693899    29.610413204    14.551303093
H       11.236693899    30.221689103    13.824088011
H       10.444367773    29.086937796    14.524963911
O       12.405735979    30.652854132    23.604047152
H       12.405735979    29.710897874    23.480684242
H       12.679737625    31.077571546    22.799659706
O        8.968440532    31.185163254    30.602520940
H        8.968440532    30.757189752    29.754382578
H        9.569133060    31.920958294    30.585935050
O        8.180337391    34.761797326    44.367251368
H        8.180337391    34.932611871    43.432734171
H        8.349017616    33.839553276    44.520593599
O       11.211525995    46.391572627    -4.045733387
H       11.211525995    46.222350684    -3.110926490
H       11.960154350    45.964133972    -4.444923478
O       15.169518480    43.405094045     9.582553762
H       15.169518480    44.182308218     9.036258851
H       15.990505923    42.940124477     9.471721157
O        6.062228557    42.414538700    23.347568454
H        6.062228557    43.238034672    22.873907832
H        5.972486679    41.695715278    22.732962703
O       12.684114606    44.126462467    33.020673776
H       12.684114606    43.232736111    33.342781212
H       12.896050202    44.129309813    32.094619705
O        7.725988090    45.568188341    39.372345576
H        7.725988090    45.079610766    40.187079859
H        8.024697440    45.006885531    38.666503649
O       23.508192165     1.494764086    -1.271444337
H       23.508192165     0.623413963    -1.649926785
H       24.201710559     2.011026537    -1.665152686
O       23.359610741     2.079226357     9.555662614
H       23.359610741     3.027468516     9.613427730
H       23.095515107     1.815185495     8.682142800
O       25.916761721     2.061252119    23.581846028
H       25.916761721     1.112275630    23.625932566
H       26.793907269     2.369168355    23.386131376
O       18.124472142    -2.654324612    36.844185228
H       18.124472142    -1.780032957    37.215822286
H       17.380364558    -2.750734158    36.261510319
O       17.963162266    -1.285273409    44.448188653
H       17.963162266    -0.760392615    45.240022065
H       18.411944427    -2.106306745    44.612504755
O       19.997843651    13.809559043    -2.461020348
H       19.997843651    12.976288019    -2.004775457
H       19.667645956    14.487170226    -1.882821841
O       26.956394017     6.084222860    13.929466412
H       26.956394017     5.256270564    14.395293628
H       26.618108054     6.766863809    14.496974023
O       21.270883316    15.349963926    25.926694306
H       21.270883316    16.295894150    25.838853486
H       21.553143279    15.113250780    26.802363848
O       18.490930375    12.633314387    31.766455726
H       18.490930375    13.572412648    31.622948042
H       17.652434105    12.367846715    32.125554413
O       25.877658126    14.391948373    41.007056107
H       25.877658126    15.306671939    40.750578432
H       26.732871113    14.158893368    41.348811951
O       19.674348472    25.901357428     4.247047127
H       19.674348472    26.578199112     3.580424793
H       20.569956628    25.668417602     4.461816808
O       22.463779239    18.478060916     8.888840151
H       22.463779239    19.193052850     8.263311147
H       23.358427966    18.211588537     9.065183770
O       21.762749781    25.624308179    21.644177677
H       21.762749781    24.705899346    21.887128732
H       21.384364969    26.138057362    22.348015483
O       23.543566100    24.136829575    29.230771740
H       23.543566100    24.709881920    29.988472875
H       24.438220964    23.979797008    28.952501378
O       25.082792495    24.450878965    40.816163071
H       25.082792495    23.515431801    40.650517054
H       25.978423094    24.761248881    40.879545168
O       18.484053590    29.626891955    -1.380533783
H       18.484053590    28.780153610    -0.949797000
H       17.669656330    29.740108050    -1.856391079
O       25.786380931    34.031850805    14.462414777
H       25.786380931    34.896534727    14.068940870
H       26.681777772    33.734478041    14.573477293
O       20.332789856    31.578841320    23.612964960
H       20.332789856    32.178985891    24.349393159
H       20.383571009    32.071987580    22.802576789
O       18.316742969    28.421052711    29.131430626
H       18.316742969    29.179434934    29.703581309
H       18.903413615    28.575862674    28.400436525
O       20.156153222    31.514451383    39.774786026
H       20.156153222    31.095783331    40.627556253
H       19.335779168    31.331339896    39.332115107
O       22.538076849    41.445788606     1.626385499
H       22.538076849    42.393246779     1.556937612
H       23.430955244    41.124804304     1.579075922
O       18.650612079    47.520493494    12.078844794
H       18.650612079    47.625961658    13.022972152
H       18.416939346    48.344642594    11.668142637
O       22.586002800    43.156849316    24.949332877
H       22.586002800    42.571959029    25.697933807
H       22.554812781    44.057172931    25.250904622
O       20.102822038    46.525765686    34.621181396
H       20.102822038    46.617552253    33.675625884
H       20.574759821    45.737484104    34.862817119
O       26.037318254    40.076327968    43.329241614
H       26.037318254    40.042554666    42.379842139
H       25.852171481    40.963355725    43.614554384
O       35.689566218    -2.415898529    -3.933153180
H       35.689566218    -1.704674357    -4.562962816
H       35.852454613    -2.069085053    -3.063849590
O       28.564000470    -0.788581290    16.088883498
H       28.564000470     0.128224927    16.337813932
H       28.346872862    -0.866490274    15.167315954
O       32.517544318     3.937866281    17.992681612
H       32.517544318     3.380618763    17.223282363
H       33.181730687     3.636951309    18.601621341
O       31.300551975     1.791238674    36.163355102
H       31.300551975     1.091049413    35.521299808
H       30.451789099     1.831309187    36.588204347
O       28.254881010    -0.657651107    46.831865420
H       28.254881010     0.229916849    47.170573442
H       29.092906845    -0.840797490    46.423611763
O       28.944179579    12.021819414     0.547623879
H       28.944179579    12.199151835     1.480926195
H       29.684979269    11.468130003     0.330495342
O       31.763019315     8.814993952    14.640068917
H       31.763019315     8.675800906    15.579816381
H       31.331466604     9.637768755    14.441814464
O       34.127644389    10.893112722    23.184218787
H       34.127644389    11.432742858    23.966075115
H       34.036584664    11.446557885    22.417467508
O       36.442214380     6.835150978    29.296444183
H       36.442214380     7.274331541    28.454054467
H       36.009820235     5.993223602    29.214623990
O       32.631006963     8.399736151    46.988389114
H       32.631006963     7.480985516    47.230044388
H       33.189986696     8.884005692    47.584648801
O       37.073489684    20.228165233     3.092109886
H       37.073489684    21.027273661     3.605846902
H       36.201351517    20.072089849     2.749303178
O       30.467835270    24.744809767    12.607290234
H       30.467835270    25.559664659    12.118913837
H       30.788396469    24.043245512    12.052719175
O       30.073744776    18.909977715    23.456354865
H       30.073744776    18.304744449    22.724103068
H       30.482791382    19.725895483    23.192802183
O       35.702759267    24.094914321    29.672773441
H       35.702759267    23.542512283    30.445658935
H       36.062349614    24.946427533    29.892138386
O       32.508056215    19.025130199    42.701399354
H       32.508056215    19.219702702    43.631260388
H       32.004144632    19.685045639    42.239787314
O       33.451951284    28.080938305    -1.542944889
H       33.451951284    27.440371579    -0.841393559
H       33.758029516    28.916070425    -1.209221343
O       35.635140272    30.673433537    12.250031494
H       35.635140272    30.979968189    13.149218075
H       34.851951380    30.159943532    12.090519361
O       34.678086908    36.383133719    24.117319708
H       34.678086908    35.504414246    24.478362763
H       35.223417122    36.406010919    23.339764220
O       27.873553580    33.358213463    36.125879384
H       27.873553580    34.001480207    36.824955843
H       28.433036020    32.629101448    36.366453729
O       33.280512932    31.855217552    42.302883578
H       33.280512932    32.786970878    42.488182633
H       32.994420389    31.379082999    43.073563726
O       34.660634070    40.358394755    -4.369616532
H       34.660634070    39.987788375    -5.244345582
H       35.013102732    41.240090932    -4.399258372
O       30.174709258    45.099994999    12.811834822
H       30.174709258    45.492547054    13.676937639
H       29.279073849    44.976207961    12.520261625
O       28.243576975    42.008265994    19.304286918
H       28.243576975    42.794962008    19.836836804
H       27.684120309    41.353936494    19.705985923
O       29.641058572    42.090510556    34.657152151
H       29.641058572    42.745958530    33.969483660
H       30.152719255    42.404165040    35.393579444
O       30.833809701    48.022885149    40.984178831
H       30.833809701    47.229481531    40.461674574
H       31.729267148    48.298059588    41.142089993
O       47.054157040     2.019671026     3.946593010
H       47.054157040     1.133624696     3.603924218
H       47.760405133     2.116326037     4.574583763
O       46.332591105     3.487285357    11.336219301
H       46.332591105     4.434950067    11.402789533
H       45.516819755     3.145484583    11.682904003
O       41.032816682     4.189304755    22.711489429
H       41.032816682     4.576429875    21.843944536
H       41.927933223     4.031539214    22.987853970
O       44.278174852     4.131686686    35.925406492
H       44.278174852     5.005954877    35.553714240
H       45.020702620     4.036233383    36.510250169
O       45.781949298     5.237254466    48.452474536
H       45.781949298     4.389798891    48.881798479
H       45.152128676     5.231945024    47.741279246
O       44.974430141    12.123885441     2.343414642
H       44.974430141    13.061924724     2.193140547
H       44.725840260    11.947318899     3.243152534
O       41.711753696    12.084368728    11.059218651
H       41.711753696    11.260284716    10.586581855
H       41.460029865    12.786709709    10.471125796
O       47.423130705    15.005127718    23.564976621
H       47.423130705    14.508891322    24.375068862
H       48.106303667    14.676621158    22.992386812
O       44.706448044    12.541024823    33.625458313
H       44.706448044    11.777683663    33.059940610
H       45.494074129    13.049336001    33.471296570
O       39.032409963    12.811736792    44.261556797
H       39.032409963    13.637112713    43.791179728
H       39.924081969    12.578460958    44.491783568
O       40.243657943    21.699901387     0.387550527
H       40.243657943    21.413562271    -0.518269494
H       39.892122328    22.580836396     0.441189767
O       42.591415354    23.638334261    10.529519379
H       42.591415354    22.890761395     9.943315652
H       43.356921535    23.600595346    11.090836586
O       41.203197946    20.887994903    17.001173251
H       41.203197946    21.818240152    17.193900458
H       42.004580281    20.496762168    17.328624388
O       47.427874025    22.866178431    32.259795819
H       47.427874025    22.731571206    33.200211097
H       46.532662349    22.882717901    31.942268738
O       39.638113850    17.380530549    45.403489686
H       39.638113850    17.925468362    46.181655979
H       39.485469603    17.921813988    44.637844260
O       40.907409445    34.086660920     4.287801424
H       40.907409445    35.033879369     4.360445828
H       41.778816181    33.786754418     4.057134265
O       43.625918463    36.270922441    15.670711601
H       43.625918463    36.571953510    14.769667598
H       42.905017008    36.674717426    16.139488358
O       46.374542344    31.550930002    22.366751396
H       46.374542344    30.618573751    22.184510291
H       47.261325422    31.837573209    22.551013140
O       48.618621145    32.885635468    37.105951512
H       48.618621145    33.080971060    36.176250481
H       48.257367494    32.018451370    37.247332157
O       43.565935712    35.929306517    47.007038037
H       43.565935712    36.465375575    46.222735822
H       43.609298168    35.012036175    46.763654053
O       46.339057370    48.847480450    -1.790215074
H       46.339057370    48.300875193    -1.013219132
H       47.170258596    48.756786921    -2.241191959
O       44.353920335    45.023158718     7.669476044
H       44.353920335    44.892092716     8.610391397
H       44.925604219    45.749746884     7.450962611
O       45.736587093    48.209703907    18.802604151
H       45.736587093    48.798958880    19.547774317
H       45.143223355    47.487017537    18.970368365
O       39.848390647    42.667000360    29.731550952
H       39.848390647    43.422906350    30.306969177
H       40.596549362    42.116768481    29.931561863
O       45.490494983    44.992402079    39.349411812
H       45.490494983    45.346782429    40.230839385
H       46.315628954    44.551030760    39.185563605
