9

O        2.634829230    -0.987901199     1.894282198
H        2.634829230    -0.081293319     1.610447471
H        1.874283601    -1.148764019     2.440354030
O       -2.398712033    -0.928257960    79.638548870
H       -2.398712033    -1.863711511    79.804158818
H       -1.553997179    -0.668352659    79.290113803
O        0.126860479     0.972719769   154.235672931
H        0.126860479     1.052575258   155.182310719
H       -0.728382869     0.680994393   153.942490279
